%chk=APFD3HPA.chk
# opt freq apfd/6-31+g(d,p)

[No Title]

1 1
 N                  0.51176900   -1.34938100    0.00006000
 C                  1.83730000   -1.41214700    0.00001100
 C                  2.56092400   -0.21887100   -0.00007300
 C                  1.88992300    0.98298000   -0.00010400
 C                  0.47777000    1.01893600   -0.00005200
 C                 -0.20225700   -0.19673600    0.00003300
 C                 -1.67205300   -0.42401300    0.00010100
 O                 -2.14147700   -1.53172300    0.00013400
 O                 -2.36457100    0.71890800   -0.00002700
 O                 -0.09849800    2.20978900   -0.00007500
 H                 -0.05826600   -2.20069000    0.00012300
 H                  2.29083300   -2.39528100    0.00004000
 H                  3.64354600   -0.25333600   -0.00011300
 H                  2.42054400    1.92938000   -0.00016600
 H                 -3.32194200    0.53579600   -0.00003700
 H                 -1.07037000    2.15310800   -0.00002700

