%chk=B2PLYP3HPA.chk
# opt freq B2PLYP/6-31+g(d,p)

[No Title]

0 1
 N                  0.42842800   -1.44393300   -0.00001900
 C                  1.74926900   -1.48667600   -0.00002800
 C                  2.54529300   -0.32915300   -0.00002200
 C                  1.93468700    0.90826200   -0.00000600
 C                  0.53355800    0.97142100    0.00000500
 C                 -0.17357300   -0.24725400   -0.00000400
 C                 -1.65616800   -0.21680500   -0.00000600
 O                 -2.30160200    0.82369600    0.00001400
 O                 -2.24321600   -1.40825600    0.00001800
 O                 -0.04368800    2.17854000    0.00002900
 H                  2.20348400   -2.47350200   -0.00004100
 H                  3.62705300   -0.41342500   -0.00003000
 H                  2.49658600    1.83621200    0.00000100
 H                 -3.20061700   -1.25300200    0.00003400
 H                 -1.01585300    2.06063400    0.00004300

