%chk=b3lyp3HPAgd3.chk
# opt freq b3lyp/6-31+g(d,p)

[No Title]

0 1
 N                 -1.28695600   -0.14341100   -0.04999700
 C                 -1.32204900   -1.40619600   -0.05376100
 C                 -0.22123500   -2.16678800   -0.03463400
 C                  0.95474400   -1.52786100   -0.01061100
 C                  1.00474500   -0.18225500   -0.00595700
 C                 -0.17855000    0.47752400   -0.02721800
 C                 -0.28370000    1.84259800   -0.02566200
 O                  0.66897900    2.58915800   -0.00484400
 O                 -1.48960400    2.46780000   -0.04768200
 O                  2.23637000    0.40404600    0.01785100
 H                 -2.32079100   -1.87383300   -0.07408100
 H                 -0.28094900   -3.26679200   -0.03872200
 H                  1.88896900   -2.11386500    0.00547300
 H                 -1.33167600    3.42590600   -0.04182400
 H                  2.21883100    1.36913400    0.00825000

