%chk=camb3lyp3HPAgd3.chk
# opt freq cam-b3lyp/6-31+g(d,p)

[No Title]

0 1
 N                 -0.44038000   -1.45173400    0.00005300
 C                 -1.76620400   -1.48386100    0.00003400
 C                 -2.55617500   -0.31852300   -0.00001500
 C                 -1.93656900    0.91906300   -0.00003900
 C                 -0.53188300    0.97361500   -0.00001400
 C                  0.17571800   -0.25489100    0.00003100
 C                  1.65380900   -0.22316500    0.00007900
 O                  2.30056900    0.82887600    0.00009000
 O                  2.25747300   -1.41627900   -0.00012900
 O                  0.06209700    2.17746000   -0.00004600
 H                 -2.22848200   -2.46769900    0.00005400
 H                 -3.63926100   -0.39551600   -0.00002300
 H                 -2.49619300    1.84855100   -0.00006600
 H                  3.21502100   -1.24602000   -0.00015000
 H                  1.03828500    2.02893100    0.00003500

