%chk=b3lypTHAPyang.chk
# opt freq b3lyp/6-31+g(d,p) em=gd3bj

[No Title]

1 1
 C                 -1.92443100    0.13891100    0.02221800
 C                 -1.93555700   -1.20224100    0.01705700
 C                 -0.74615200   -1.82113300   -0.00284200
 C                  0.40390900   -1.12954900   -0.00006700
 C                  0.39272600    0.22961700    0.00137900
 C                 -0.79676000    0.87121800    0.00559700
 O                 -0.92227700    2.22485000    0.03574400
 C                  1.59091700    0.89714500    0.00021500
 C                  1.79979800    2.39943400   -0.01458000
 O                  2.53939600    0.14945200    0.00137700
 O                  1.58951000   -1.90767600    0.02046100
 O                 -3.10155800   -1.90446600    0.02834400
 H                 -2.89518100    0.66341200    0.04287300
 H                 -0.72196600   -2.92350500   -0.00878500
 H                 -1.84792900    2.47652700    0.18240100
 H                  1.33430200    2.86333300   -0.91253900
 H                  1.41770100    2.86651400    0.92051000
 H                  2.88580100    2.64090800   -0.06627000
 H                  2.23953100   -1.54117500   -0.62382500
 H                  1.38505600   -2.84630500   -0.22759900
 H                 -2.89967000   -2.84856500   -0.07410600

