%chk=B2PLYPPNA.chk
# opt freq B2PLYP/6-31+g(d,p)

[No Title]

0 1
 C                  0.02404600   -1.21435000    0.00002600
 C                  0.70567800    0.00000100    0.00007100
 C                  0.02404500    1.21435100    0.00009600
 C                 -1.35919500    1.21356600    0.00007800
 C                 -2.07499700    0.00000000    0.00003300
 C                 -1.35919500   -1.21356600    0.00000700
 N                 -3.44155300    0.00000000    0.00001800
 N                  2.16312500    0.00000000    0.00008500
 O                  2.73357400    1.08002300   -0.00013800
 O                  2.73357100   -1.08002400   -0.00021000
 H                  0.58577400   -2.14094600    0.00000400
 H                  0.58577200    2.14094700    0.00012700
 H                 -1.90095300    2.15455000    0.00009700
 H                 -1.90095200   -2.15455000   -0.00002800
 H                 -3.96005000   -0.86128100   -0.00002800
 H                 -3.96005000    0.86127900    0.00002600

