%chk=b3lyp4NiAn.chk
# opt freq b3lyp/6-31+g(d,p)

[No Title]

0 1
 C                 -1.13717400    0.67324500   -0.00000900
 C                 -1.16699300   -0.67503800   -0.00000400
 C                  0.01594400   -1.32193000    0.00005900
 C                  1.18034200   -0.65397600    0.00007300
 C                  1.18670400    0.68703600    0.00002600
 C                  0.02175400    1.35065200    0.00000500
 N                  2.28528600    1.31853400    0.00000600
 N                 -2.25582300   -1.30429400   -0.00005500
 O                 -2.32850500   -2.61631900   -0.00007300
 O                 -3.42312600   -0.70257400   -0.00013800
 H                 -2.06589100    1.26928200   -0.00004000
 H                  0.06805400   -2.42421800    0.00008500
 H                  2.12929700   -1.21753600    0.00010800
 H                  0.00703400    2.45418600   -0.00001700
 H                  2.28831300    2.36795000   -0.00004000
 H                  3.19478500    0.79500000    0.00001400

