%chk=b3lyp4NiAnyang.chk
# opt freq b3lyp/6-31+g(d,p)

[No Title]

1 1
 C                 -0.88769200    0.76266000    0.05166600
 C                 -0.93258800   -0.58513500    0.03663200
 C                  0.25126000   -1.23156300    0.00371900
 C                  1.42199600   -0.57286100   -0.01345800
 C                  1.44353200    0.76793600    0.00205300
 C                  0.27749000    1.43122200    0.03474600
 N                  2.54030700    1.40389100   -0.01365000
 N                 -2.06513300   -1.24833600    0.05302000
 O                 -2.07668500   -2.56629900    0.03763000
 O                 -3.09303200   -0.76457600    0.08092100
 H                 -1.81175000    1.36471700    0.07852700
 H                  0.29892700   -2.33377000   -0.01021900
 H                  2.36624200   -1.14358600   -0.04032800
 H                  0.26655500    2.53491900    0.04805300
 H                  2.54718500    2.45314800   -0.00124700
 H                  3.45192200    0.88481000   -0.03915800
 H                 -3.90076300   -1.33246500    0.09166500

