%chk=m062xPNAyang.chk
# opt freq m062x/6-31+g(d,p)

[No Title]

1 1
 C                 -0.06016800    1.26451200   -0.00000100
 C                  0.66721500    0.03870000    0.00000300
 C                 -0.00646300   -1.21690200    0.00000000
 C                 -1.37234400   -1.23943400    0.00000200
 C                 -2.12013600   -0.01852800   -0.00000100
 C                 -1.42462500    1.23362500   -0.00000600
 N                 -3.45569900   -0.04641900   -0.00000100
 N                  2.03132000    0.11010100    0.00001400
 O                  2.67314600   -1.10361700    0.00000400
 O                  2.71014700    1.12009200    0.00000400
 H                  0.47886700    2.20440600   -0.00000200
 H                  0.55880200   -2.13969500   -0.00000100
 H                 -1.89983000   -2.18732200    0.00000600
 H                 -1.99069200    2.15903100   -0.00001400
 H                 -4.00225800    0.80434900   -0.00000600
 H                 -3.96666800   -0.91900300    0.00000700
 H                  3.62521500   -0.87117100   -0.00013000

