%chk=B2PLYPD3BJPNA.chk
# opt freq B2PLYP/6-31+g(d,p) EmpiricalDispersion=GD3BJ

[No Title]

0 1
 C                 -0.02264800    1.21427200   -0.00009300
 C                 -0.71135300    0.00000000   -0.00008300
 C                 -0.02264800   -1.21427300   -0.00002300
 C                  1.36059100   -1.21427900    0.00002800
 C                  2.07997100    0.00000000    0.00001800
 C                  1.36059000    1.21427800   -0.00004300
 N                  3.44516500    0.00000000    0.00007200
 N                 -2.16110600    0.00000000   -0.00013800
 O                 -2.73864100   -1.08697400    0.00013500
 O                 -2.73863900    1.08697500    0.00006900
 H                 -0.58253400    2.14252800   -0.00014100
 H                 -0.58253300   -2.14252900   -0.00001600
 H                  1.89882100   -2.15831700    0.00007600
 H                  1.89882000    2.15831700   -0.00005100
 H                  3.96512100    0.86023400    0.00004800
 H                  3.96512100   -0.86023300    0.00010000

