%chk=pbe4NiAn.chk
# opt freq pbepbe/6-31+g(d,p) em=gd3bj

[No Title]

0 1
 C                 -0.02134900    1.21663600    0.00023300
 C                 -0.71220100    0.00000100    0.00040100
 C                 -0.02135000   -1.21663300    0.00030400
 C                  1.36450400   -1.21626100    0.00016400
 C                  2.08472900   -0.00000100    0.00005700
 C                  1.36450500    1.21626000    0.00009300
 N                  3.45498800    0.00000100   -0.00007300
 N                 -2.16661300    0.00000000    0.00062300
 O                 -2.74823800   -1.09152600   -0.00071300
 O                 -2.74825000    1.09152300   -0.00077900
 H                 -0.57937600    2.14497500    0.00027600
 H                 -0.57938000   -2.14497300    0.00040200
 H                  1.90361900   -2.15942900    0.00014500
 H                  1.90362200    2.15942800    0.00001900
 H                  3.97588500    0.86095800   -0.00015900
 H                  3.97588400   -0.86095700   -0.00010600

