%chk=pbe4NiAnyang.chk
# opt freq pbepbe/6-31+g(d,p) em=gd3bj

[No Title]

1 1
 C                 -0.00713700   -1.21745300    0.00000300
 C                  0.66826200    0.03845800    0.00000200
 C                 -0.06056600    1.26463700    0.00000100
 C                 -1.42577400    1.23383900    0.00000000
 C                 -2.12282300   -0.01851400    0.00000000
 C                 -1.37377300   -1.23974600    0.00000300
 N                 -3.45914300   -0.04627000   -0.00000300
 N                  2.03367800    0.11012400    0.00000100
 O                  2.71256100    1.12025200    0.00000100
 O                  2.67678600   -1.10342400   -0.00000500
 H                  0.55688500   -2.14153200    0.00000500
 H                  0.47737300    2.20564400    0.00000000
 H                 -1.99086700    2.16033300   -0.00000100
 H                 -1.90048600   -2.18854400    0.00000600
 H                 -3.97109700   -0.91855400   -0.00000500
 H                 -4.00646900    0.80429200   -0.00000600
 H                  3.62900900   -0.87058000   -0.00001000

