%chk=pbeD3THAPyang.chk
# opt freq pbepbe/6-31+g(d,p) empiricaldispersion=gd3

[No Title]

1 1
 C                  1.54772900   -1.26429000   -0.00023800
 C                  2.28249700   -0.07519200   -0.00008900
 C                  1.63361300    1.17374700    0.00000700
 C                  0.25835800    1.20938700    0.00001500
 C                 -0.55743900    0.02340900   -0.00004800
 C                  0.16585300   -1.22455200   -0.00024700
 O                 -0.55413200   -2.35208600   -0.00043600
 C                 -1.98026200    0.08242600    0.00021400
 C                 -2.90836100   -1.07714900    0.00031000
 O                 -2.62203400    1.21508200    0.00043200
 O                 -0.40436000    2.39342700   -0.00000600
 O                  3.60671800   -0.19686300   -0.00009900
 H                  2.08314100   -2.20840900   -0.00037100
 H                  2.20853000    2.09590000   -0.00002300
 H                  0.01968400   -3.13120500   -0.00054100
 H                 -2.73772200   -1.71002200   -0.87522600
 H                 -2.73718200   -1.71035800    0.87549300
 H                 -3.93211600   -0.70351600    0.00068300
 H                 -2.01100700    1.98682000    0.00038700
 H                  0.18502700    3.16023800    0.00090800
 H                  4.06017500    0.65736700    0.00001100

