%chk=pvdzSAYang.chk
# opt freq m062x/aug-cc-pvdz

[No Title]

1 1
 C                  2.39471200    0.19849500   -0.00193900
 C                  1.92025900   -1.13397500    0.00605400
 C                  0.55416200   -1.34838300    0.01340900
 C                 -0.35498500   -0.25770400    0.01248200
 C                  0.13117100    1.07581000    0.00096000
 C                  1.48979800    1.29189700   -0.00416500
 O                  3.69796500    0.40616700   -0.00834400
 O                  2.87580100   -2.07337800    0.00551200
 C                  2.46757900   -3.43357800    0.01340800
 O                  2.12297400    2.48560900   -0.01349100
 C                  1.32951800    3.66757300   -0.01476700
 C                 -1.73394000   -0.55838200    0.01566600
 C                 -2.79159000    0.34074300    0.01802900
 C                 -4.10237400   -0.11140800   -0.00182300
 O                 -5.07378900    0.77044100    0.08405900
 O                 -4.37436300   -1.39642200   -0.11609200
 H                  0.16035200   -2.35837900    0.01998500
 H                 -0.55403100    1.91397700   -0.00315700
 H                  3.87923200    1.36112800   -0.01434800
 H                  3.38568600   -4.01701500    0.01111100
 H                  1.88985100   -3.66029400    0.91629900
 H                  1.88049800   -3.66797600   -0.88143200
 H                  2.03132400    4.49871900   -0.02020900
 H                  0.70377000    3.70496400   -0.91220600
 H                  0.71022800    3.71111900    0.88689200
 H                 -1.99331000   -1.61622300    0.01434200
 H                 -2.66437000    1.41505600    0.03535700
 H                 -5.96032600    0.43501200   -0.11562200
 H                 -5.28347100   -1.64595300    0.10594800

