%chk=b3lypFA.chk
# opt freq b3lyp/6-31+g(d,p) em=gd3bj

[No Title]

0 1
 C                 -2.38467600    0.48154100    0.00123800
 C                 -2.32874000   -0.85883300    0.00069600
 C                 -1.12871500   -1.47468200   -0.00041900
 C                 -0.02803100   -0.69433600   -0.00078300
 C                 -0.05755800    0.65515900   -0.00032100
 C                 -1.27351600    1.23032700    0.00072800
 O                 -3.47193800   -1.59863100    0.00122700
 C                  1.10514800    1.34424700   -0.00094500
 C                  1.26445000    2.68093000   -0.00069800
 O                 -1.12557600   -2.85020400   -0.00079100
 C                  0.10165700   -3.54075500    0.00002500
 C                  2.47603300    3.30629600   -0.00146900
 O                  2.51456200    4.52305500   -0.00114600
 O                  3.64242600    2.61237800   -0.00259900
 H                 -3.37185700    0.97469700    0.00212500
 H                  0.95655000   -1.18826600   -0.00158400
 H                 -1.41577100    2.32160500    0.00122800
 H                 -3.23867300   -2.54126800    0.00070100
 H                  2.02858000    0.74076300   -0.00179400
 H                  0.38781100    3.34839200    0.00014800
 H                 -0.12305900   -4.63099700    0.00019700
 H                  0.67819600   -3.30684400   -0.92258100
 H                  0.67725400   -3.30630200    0.92308400
 H                  3.47241400    1.65871100   -0.00284900

