%chk=b3lypFAyang.chk
# opt freq b3lyp/6-31+g(d,p) em=gd3bj

[No Title]

1 1
 C                 -2.55344400    0.22477900   -0.03551300
 C                 -2.50123100   -1.11499800    0.01101300
 C                 -1.30321900   -1.73351800    0.04916300
 C                 -0.20021600   -0.95658200    0.02362400
 C                 -0.22631300    0.39222900   -0.02123800
 C                 -1.44038200    0.97052600   -0.04915300
 O                 -3.64714100   -1.85062000    0.01913500
 C                  0.93734400    1.07940600   -0.03580500
 C                  1.10378700    2.41431900   -0.07798600
 C                  2.30751400    3.01497700   -0.08738800
 O                  2.38454300    4.23289600   -0.09924100
 O                  3.51034300    2.37391700   -0.05257300
 O                 -1.30444300   -3.10860800    0.08855100
 C                 -0.08566500   -3.80431700   -0.02739000
 H                 -3.53913200    0.72011500   -0.06415700
 H                  0.78334800   -1.45218100    0.04527900
 H                 -1.57882800    2.06165100   -0.08742800
 H                 -3.41878100   -2.79423300    0.03904600
 H                  1.86664700    0.48245600   -0.01009200
 H                  0.23075200    3.08501600   -0.10804200
 H                  3.32054200    4.55025300   -0.15253600
 H                  4.09661500    2.81470900    0.58308600
 H                 -0.31601400   -4.89332700   -0.02505300
 H                  0.41107300   -3.55549300   -0.99162900
 H                  0.56851400   -3.58956800    0.84672800

