%chk=pbeFAgd3.chk
# opt freq pbepbe/6-31+g(d,p) em=gd3bj

[No Title]

0 1
 C                  1.49002600   -2.02014600   -0.00030200
 C                  2.51030700   -1.06947600   -0.00034300
 C                  2.18566600    0.30282500   -0.00019500
 C                  0.85510200    0.70234800   -0.00001200
 C                 -0.18648700   -0.25378300    0.00002300
 C                  0.15746100   -1.61776300   -0.00011800
 O                  3.80880400   -1.46963100   -0.00051900
 C                 -1.56440100    0.23008200    0.00021300
 C                 -2.69608200   -0.50794800    0.00011600
 C                 -4.04532800    0.06652300    0.00033000
 O                 -5.07248500   -0.59204500    0.00022200
 O                 -4.07795600    1.43227700    0.00066900
 O                  3.28078900    1.13189500   -0.00025700
 C                  3.06911100    2.54138200    0.00004200
 H                  1.76066400   -3.07083800   -0.00040600
 H                  0.59988200    1.75632500    0.00010100
 H                 -0.61855700   -2.37536200   -0.00007400
 H                  4.37138400   -0.67886700   -0.00050900
 H                 -1.67880000    1.31211000    0.00045200
 H                 -2.68988700   -1.59235000   -0.00013700
 H                 -5.01699500    1.67927800    0.00077100
 H                  4.06150900    2.99269900    0.00001900
 H                  2.52256900    2.85656200   -0.89663800
 H                  2.52276600    2.85620900    0.89696600

