%chk=b3lypD3Anthranilicyang.chk
# opt freq b3lyp/6-31+g(d,p) EmpiricalDispersion=GD3

[No Title]

1 1
 C                  1.94172000   -1.46614900    0.00000000
 C                  2.61870500   -0.24746400   -0.00000500
 C                  1.90672400    0.95472800    0.00000300
 C                  0.52311700    0.91213400    0.00001200
 C                 -0.18407800   -0.30273400    0.00004200
 C                  0.54973600   -1.49548300    0.00002100
 C                 -1.66610100   -0.30604600    0.00011900
 O                 -2.21306800   -1.50481800   -0.00014900
 N                 -0.25197200    2.16657600   -0.00002600
 O                 -2.34128700    0.72879300    0.00007400
 H                  2.49908200   -2.39714700   -0.00000600
 H                  3.70381400   -0.22432700   -0.00002200
 H                  2.43446400    1.90495200   -0.00001500
 H                  0.01888300   -2.44109700    0.00004000
 H                 -3.18236500   -1.41785100   -0.00023200
 H                 -0.06342800    2.73667600   -0.82887400
 H                 -1.28719500    1.85039400   -0.00012200
 H                 -0.06354400    2.73666000    0.82885900

