%chk=gd3camb3lypAnthranilicyang.chk
# opt freq cam-b3lyp/6-31+g(d,p) em=gd3bj

[No Title]

1 1
 C                 -1.93939000   -1.47583800   -0.00030200
 C                 -2.62311600   -0.25841700    0.00011900
 C                 -1.91406500    0.94845300    0.00037000
 C                 -0.52839700    0.91122900    0.00014600
 C                  0.18707100   -0.30190200   -0.00007200
 C                 -0.54475600   -1.49912700   -0.00030100
 C                  1.67335500   -0.30219900   -0.00000200
 O                  2.22272500   -1.50629900    0.00051200
 N                  0.23835400    2.18197800   -0.00007900
 O                  2.34896100    0.73349400   -0.00035200
 H                 -2.49210100   -2.40915500   -0.00062500
 H                 -3.70788200   -0.23949600    0.00021100
 H                 -2.44514400    1.89640400    0.00077200
 H                 -0.01098600   -2.44225000   -0.00034500
 H                  3.19406200   -1.42169700    0.00047100
 H                  0.04136000    2.75160700    0.82896600
 H                  1.27240200    1.88935700    0.00008500
 H                  0.04211000    2.75063100   -0.83000400

