%chk=gd3pbeAnthranilic.chk
# opt freq pbepbe/6-31+g(d,p) em=gd3bj

[No Title]

0 1
 C                 -1.85922100   -1.52338900   -0.00002200
 C                 -2.58942400   -0.32162600    0.00021800
 C                 -1.94401600    0.90306300    0.00020200
 C                 -0.52993400    0.98771800   -0.00005900
 C                  0.21349900   -0.23164900   -0.00031200
 C                 -0.47524400   -1.46411200   -0.00025900
 C                  1.67932300   -0.20225800   -0.00059100
 O                  2.26062500   -1.43192100    0.00033400
 N                  0.07581600    2.20817200   -0.00010600
 O                  2.38052600    0.80802400    0.00027200
 H                 -2.36990900   -2.48036300   -0.00001300
 H                 -3.67574000   -0.34762100    0.00041800
 H                 -2.52086300    1.82438500    0.00037900
 H                  0.10944400   -2.37662100   -0.00043500
 H                  3.21937200   -1.27704300    0.00084800
 H                  1.08639100    2.25697500   -0.00040400
 H                 -0.47851200    3.04777900    0.00004500

