%chk=ccpvTZPNAyang.chk
# opt freq m062x/cc-pvtz

[No Title]

1 1
 C                 -0.05729500    1.26409700   -0.00000600
 C                  0.66317900    0.03660400   -0.00001700
 C                 -0.00534400   -1.21938400   -0.00000800
 C                 -1.36846500   -1.24186300    0.00000600
 C                 -2.11107000   -0.01815500    0.00001400
 C                 -1.41894700    1.23549300    0.00000700
 N                 -3.44112300   -0.04428700    0.00002700
 N                  2.02694000    0.10570700   -0.00003000
 O                  2.66123400   -1.08288400    0.00000000
 O                  2.69496900    1.10284800   -0.00000400
 H                  0.48950900    2.20495900   -0.00001200
 H                  0.56480100   -2.14458400   -0.00001400
 H                 -1.90331500   -2.18981100    0.00001000
 H                 -1.99109600    2.16137400    0.00001200
 H                 -3.98339300    0.80906400    0.00003300
 H                 -3.95018700   -0.91776500    0.00003200
 H                  3.61099700   -0.85364500    0.00001600

