%chk=b3lypSAyanggd3.chk
# opt freq b3lyp/6-31+g(d,p)

[No Title]

1 1
 C                 -1.76517600    1.30985300   -0.29048000
 C                 -2.00828800   -0.00549200   -0.11222700
 C                 -0.94377600   -0.81904400    0.03799900
 C                  0.33319800   -0.38934300   -0.00048000
 C                  0.51311000    0.93089400   -0.17820500
 C                 -0.50985600    1.79791300   -0.27808200
 O                 -2.80072000    2.17614300   -0.47854800
 O                 -3.32239600   -0.41646000   -0.11049300
 C                 -3.61645000   -1.78504600    0.04960800
 O                 -0.28276400    3.13062900   -0.51497600
 C                 -0.10391600    3.89182100    0.65787500
 C                  1.34059600   -1.28301700    0.11783400
 C                  2.66402900   -1.03722800    0.09598300
 C                  3.62656500   -1.97040600    0.20395900
 O                  4.95726500   -1.67159100    0.18471600
 O                  3.38653200   -3.16386400    0.27507600
 H                 -1.12251300   -1.89668500    0.17835700
 H                  1.51928400    1.37070600   -0.25076700
 H                 -2.43836700    3.05763500   -0.66440600
 H                 -4.72331500   -1.89918300    0.01754000
 H                 -3.18440100   -2.37602200   -0.78861000
 H                 -3.26176500   -2.14526100    1.04105200
 H                  0.06295000    4.95138000    0.36150200
 H                 -1.01568900    3.82996600    1.29342200
 H                  0.78441100    3.52637200    1.21992500
 H                  1.05125600   -2.34196100    0.24294900
 H                  3.03977300   -0.00872300   -0.01839200
 H                  5.41974500   -2.27285100   -0.42104600
 H                  4.20937000   -3.70187200    0.38870700

