%chk=b3lypSAgd3.chk
# opt freq b3lyp/6-31+g(d,p)

[No Title]

0 1
 C                 -1.49970800    1.21047900   -0.00125300
 C                 -1.76488700   -0.11605000   -0.00082800
 C                 -0.72975900   -0.97676800   -0.00048800
 C                  0.55452800   -0.57817400   -0.00062300
 C                  0.75560200    0.74947500   -0.00095600
 C                 -0.22751800    1.67250300   -0.00122200
 O                 -2.57684600    2.04253200   -0.00135100
 O                 -3.08860400   -0.49936200   -0.00077500
 C                 -3.41651000   -1.86962400   -0.00029200
 O                  0.20199000    2.98356600   -0.00140800
 C                 -0.67517600    4.08103800   -0.00049200
 C                  1.53887000   -1.50403100   -0.00037800
 C                  2.86779600   -1.28973200   -0.00102600
 C                  3.81134600   -2.27194100   -0.00076000
 O                  5.13194000   -1.96572600   -0.00175800
 O                  3.54600500   -3.45473000    0.00034500
 H                 -0.93710400   -2.05813200   -0.00015000
 H                  1.78040400    1.15332500   -0.00094600
 H                 -2.28117600    2.96024500    0.00125600
 H                 -4.52673300   -1.95160900   -0.00040100
 H                 -3.03584600   -2.36093700   -0.92343100
 H                 -3.03606400   -2.36021000    0.92332500
 H                 -0.05435000    5.00535900   -0.00080900
 H                 -1.28415500    4.09242100   -0.93180100
 H                 -1.28259500    4.09203600    0.93184700
 H                  1.22075900   -2.56190500    0.00030700
 H                  3.28569500   -0.27092400   -0.00195400
 H                  5.63591100   -2.79549600   -0.00150400

