%chk=lwm062SAYang.chk
# opt freq m062x/6-31+g(d,p) 

[No Title]

1 1
 C                 -2.39062200    0.19781000    0.00131300
 C                 -1.91859200   -1.13235000   -0.00602200
 C                 -0.55509100   -1.34707400   -0.01070800
 C                  0.35666700   -0.26047000   -0.00884400
 C                 -0.13047800    1.07124300    0.00184100
 C                 -1.48574000    1.28725100    0.00524900
 O                 -3.69382700    0.41539700    0.00557800
 O                 -2.87236300   -2.07456600   -0.00762100
 C                 -2.47648900   -3.43981900   -0.01708100
 O                 -2.11885600    2.48222700    0.01407000
 C                 -1.33897700    3.67453900    0.01690200
 C                  1.73156800   -0.56177000   -0.01226100
 C                  2.79247100    0.33278500   -0.01819200
 C                  4.10068800   -0.11078400    0.00112300
 O                  5.06981200    0.77583800   -0.09867500
 O                  4.38342100   -1.39476800    0.12753200
 H                 -0.16384500   -2.35642000   -0.01639000
 H                  0.55470300    1.90737000    0.00700000
 H                 -3.86101500    1.37394000    0.01126500
 H                 -3.40055900   -4.01389900   -0.01791600
 H                 -1.90000700   -3.67311900   -0.91849100
 H                 -1.89484300   -3.68417400    0.87806100
 H                 -2.05117700    4.49672800    0.02242000
 H                 -0.71464800    3.72212200    0.91427700
 H                 -0.71973900    3.72964500   -0.88356900
 H                  1.98807700   -1.61854600   -0.00891000
 H                  2.66016200    1.40582200   -0.04005300
 H                  5.95615300    0.45021100    0.11973600
 H                  5.28881200   -1.64087200   -0.11442000

