%chk=lwWB97XDSA.chk
# opt freq wb97xd/6-31+g(d,p)

[No Title]

0 1
 C                  2.27767400   -0.11768000    0.00073300
 C                  1.69785000    1.17535400    0.00031100
 C                  0.31782500    1.33863600    0.00003100
 C                 -0.53210000    0.21470000    0.00012200
 C                  0.04006500   -1.05866500    0.00038000
 C                  1.42611400   -1.23872400    0.00054800
 O                  3.64682600   -0.12941900    0.00105700
 O                  2.59621900    2.19748200    0.00032800
 C                  2.09265200    3.52691400   -0.00004000
 O                  1.79195700   -2.56779700    0.00052000
 C                  3.13570400   -3.01991900   -0.00125500
 C                 -1.97270800    0.43748900   -0.00011500
 C                 -2.95022600   -0.49151500   -0.00018600
 C                 -4.35863100   -0.07733900   -0.00042900
 O                 -5.19757200   -1.15270100   -0.00078500
 O                 -4.78401900    1.06607800   -0.00081100
 H                 -0.11814500    2.32919300   -0.00019500
 H                 -0.56930100   -1.95421200    0.00032000
 H                  3.98700600   -1.02806300    0.00367000
 H                  2.97014200    4.17370500    0.00001900
 H                  1.49159600    3.72497400   -0.89606300
 H                  1.49121800    3.72532600    0.89565300
 H                  3.07694100   -4.10928600   -0.00199000
 H                  3.67354900   -2.71319700   -0.90899200
 H                  3.67540800   -2.71481300    0.90598500
 H                 -2.29461300    1.47755700   -0.00025500
 H                 -2.75445000   -1.55782400   -0.00007600
 H                 -6.10195100   -0.79799900   -0.00114300

