%chk=pvdzPNAyang.chk
# opt freq m062x/aug-cc-pvdz

[No Title]

1 1
 C                  0.05684900    1.26308300    0.00013200
 C                 -0.66467700    0.03637400    0.00034500
 C                  0.00535700   -1.21888400    0.00023600
 C                  1.36723400   -1.24032400    0.00005100
 C                  2.11193600   -0.01772100   -0.00009000
 C                  1.41751600    1.23449900   -0.00004900
 N                  3.44091400   -0.04413400   -0.00026000
 N                 -2.02546100    0.10504700    0.00054400
 O                 -2.65896000   -1.08471000   -0.00035100
 O                 -2.69539200    1.10600500   -0.00022400
 H                 -0.48629200    2.20205500    0.00017800
 H                 -0.56145100   -2.14218500    0.00034600
 H                  1.89827600   -2.18628700    0.00002000
 H                  1.98517200    2.15893200   -0.00015000
 H                  3.98548400    0.80753000   -0.00036200
 H                  3.95201200   -0.91622700   -0.00029300
 H                 -3.61184200   -0.86272900   -0.00088700

