%chk=B3PWAnthranilic.chk
# opt freq b3pw91/6-31+g(d,p)

[No Title]

0 1
 C                 -1.84983100   -1.52296500    0.00001400
 C                 -2.57849000   -0.32414200    0.00000300
 C                 -1.93748700    0.89832300    0.00000100
 C                 -0.52642100    0.98504600    0.00001000
 C                  0.20962800   -0.22822400    0.00001200
 C                 -0.46948200   -1.45938000    0.00001500
 C                  1.67863100   -0.20057800    0.00000000
 O                  2.24715000   -1.42459800   -0.00005400
 N                  0.07086900    2.20604000    0.00002500
 O                  2.37429400    0.80207300   -0.00000800
 H                 -2.35885400   -2.47981200    0.00001800
 H                 -3.66431800   -0.35051400   -0.00000100
 H                 -2.51460300    1.81889500   -0.00000200
 H                  0.12141300   -2.36836400    0.00001800
 H                  3.20525800   -1.28233100   -0.00006500
 H                  1.07776500    2.27372000    0.00003400
 H                 -0.49358300    3.03783700   -0.00001800

