%chk=B3PWAnthranilicyang.chk
# opt freq b3pw91/6-31+g(d,p)

[No Title]

1 1
 C                  1.93276300   -1.47122600    0.00002100
 C                  2.61352700   -0.25624000   -0.00000200
 C                  1.90767300    0.94823100   -0.00000500
 C                  0.52532000    0.90875800    0.00001400
 C                 -0.18261200   -0.30052200    0.00004200
 C                  0.54078100   -1.49550900    0.00004100
 C                 -1.67045000   -0.30088900    0.00006100
 O                 -2.21126000   -1.49851700   -0.00008000
 N                 -0.24054700    2.17221500    0.00000600
 O                 -2.33903500    0.72942600   -0.00003800
 H                  2.48678100   -2.40327400    0.00002200
 H                  3.69798400   -0.23776800   -0.00001900
 H                  2.43642100    1.89747800   -0.00002100
 H                  0.00225800   -2.43676700    0.00006000
 H                 -3.18137400   -1.42286400   -0.00017800
 H                 -0.04095600    2.73806900   -0.83031000
 H                 -1.27587800    1.87870900   -0.00006200
 H                 -0.04106600    2.73801600    0.83038600

