%chk=B2PLYPD3BJDHByang.chk
# opt freq B2PLYP/6-31+g(d,p) EmpiricalDispersion=GD3BJ

[No Title]

1 1
 C                 -0.21773600    1.27584700    0.00000700
 C                 -0.42521700   -0.13650400    0.00000500
 C                  0.69191400   -1.01389300   -0.00001000
 C                  1.98024100   -0.51778100   -0.00001900
 C                  2.17236900    0.87983100   -0.00001500
 C                  1.09767900    1.75235500   -0.00000200
 O                  2.99436500   -1.40677200   -0.00003700
 C                 -1.72257300   -0.71588900    0.00002400
 O                 -1.80720300   -2.02235000    0.00008500
 O                 -2.78593000    0.03460400   -0.00006100
 O                 -1.27431200    2.09555800    0.00002300
 H                  0.54362500   -2.08695000   -0.00001500
 H                  3.18064900    1.28771400   -0.00002600
 H                  1.27696900    2.82418900    0.00000100
 H                  3.85610500   -0.97206700   -0.00002200
 H                 -2.70479900   -2.38896200   -0.00000400
 H                 -3.63373900   -0.43753100    0.00001900
 H                 -0.99423200    3.02150100    0.00003300

