%chk=B3PW91FAyang.chk
# opt freq b3pw91/6-31+g(d,p)

[No Title]

1 1
 C                  1.47618700   -2.02629600   -0.02345100
 C                  2.51082400   -1.08162500   -0.01095900
 C                  2.22386600    0.31173000    0.00373500
 C                  0.91642400    0.73465900    0.00797900
 C                 -0.14342900   -0.21748200   -0.00072800
 C                  0.16706100   -1.59936600   -0.02024300
 O                  3.76740800   -1.49578200   -0.01479900
 C                 -1.47283400    0.26456300    0.00642300
 C                 -2.63645100   -0.48736700    0.02181200
 C                 -3.87986300    0.13208500    0.00113200
 O                 -4.95224900   -0.61815900    0.09990900
 O                 -3.98347600    1.43900200   -0.12360500
 O                  3.33398800    1.08128600    0.01248800
 C                  3.16718300    2.49507300    0.03210500
 H                  1.73944000   -3.07772600   -0.03774600
 H                  0.67908400    1.79328100    0.01941600
 H                 -0.62632900   -2.33852900   -0.03392300
 H                  4.37186400   -0.73448100   -0.00580400
 H                 -1.59220500    1.34767300   -0.00029900
 H                 -2.65137800   -1.56891300    0.05086600
 H                 -5.79495100   -0.17685500   -0.08396400
 H                 -4.85654000    1.80486800    0.08172700
 H                  4.17046800    2.91545500    0.03853100
 H                  2.63123500    2.82682300   -0.86298300
 H                  2.63014200    2.80178100    0.93541100

