%chk=camb3lypFAyanggd3.chk
# opt freq cam-b3lyp/6-31+g(d,p)

[No Title]

1 1
 C                 -1.47500500   -2.03190800    0.02313900
 C                 -2.51766200   -1.08949100    0.01157700
 C                 -2.23378000    0.30861200   -0.00502800
 C                 -0.92261700    0.73456200   -0.01160300
 C                  0.14775300   -0.21364900   -0.00248400
 C                 -0.16476400   -1.60236900    0.01773900
 O                 -3.77781300   -1.51547000    0.01761300
 C                  1.47579500    0.27580200   -0.01050300
 C                  2.65210200   -0.46810300   -0.01653000
 C                  3.90214400    0.13697700    0.00015700
 O                  4.97492000   -0.63242300   -0.10497900
 O                  4.02597800    1.45262300    0.12920600
 O                 -3.35119900    1.07722900   -0.01301700
 C                 -3.21920100    2.50641900   -0.02922000
 H                 -1.73149700   -3.08530400    0.03805000
 H                 -0.68863300    1.79302000   -0.02461700
 H                  0.62798800   -2.34136400    0.02941500
 H                 -4.38445300   -0.75284900    0.00895700
 H                  1.58645300    1.35846900   -0.01152100
 H                  2.66099700   -1.55043700   -0.03545600
 H                  5.81432800   -0.20163300    0.12363400
 H                  4.89522100    1.80314100   -0.12282800
 H                 -4.23615000    2.89525000   -0.03151900
 H                 -2.69210500    2.85254600    0.86590500
 H                 -2.69582800    2.83236700   -0.93406700

