%chk=WB97XDFAyang.chk
# opt freq wb97xd/6-31+g(d,p)

[No Title]

1 1
 C                 -1.46999500   -2.03013900    0.02367400
 C                 -2.51322500   -1.08952100    0.01183300
 C                 -2.23181800    0.30783500   -0.00511800
 C                 -0.92296500    0.73727200   -0.01182000
 C                  0.14691300   -0.20925400   -0.00254700
 C                 -0.16138100   -1.59778100    0.01818000
 O                 -3.77305400   -1.51471200    0.01798300
 C                  1.47299800    0.27977400   -0.01087300
 C                  2.64513500   -0.46844800   -0.01751000
 C                  3.89468700    0.13471700    0.00009400
 O                  4.96721800   -0.63418100   -0.10650900
 O                  4.01807600    1.45001800    0.13179400
 O                 -3.34938700    1.07443300   -0.01323100
 C                 -3.20853700    2.50157700   -0.02980200
 H                 -1.72485700   -3.08348600    0.03897200
 H                 -0.69016400    1.79540600   -0.02509700
 H                  0.63377300   -2.33343600    0.03021700
 H                 -4.37754400   -0.75037400    0.00911600
 H                  1.58585700    1.36181000   -0.01165500
 H                  2.64972700   -1.55036200   -0.03728200
 H                  5.80556500   -0.20338900    0.12542300
 H                  4.88565700    1.80073800   -0.12495800
 H                 -4.22227000    2.89774700   -0.03239300
 H                 -2.67793900    2.84267000    0.86502400
 H                 -2.68148900    2.82202800   -0.93431700

