%chk=pvdzm062xDHB.chk
# opt freq m062x/aug-cc-pvdz

[No Title]

0 1
 C                  0.23444300    1.26941200    0.00002800
 C                  0.46156000   -0.11931500    0.00004800
 C                 -0.62837200   -0.99591900    0.00004200
 C                 -1.93228000   -0.51849300   -0.00000100
 C                 -2.15728500    0.85676300   -0.00003000
 C                 -1.08130700    1.73649400   -0.00000500
 O                 -2.94129600   -1.43978200   -0.00004200
 C                  1.84421700   -0.67278500    0.00007200
 O                  1.84895900   -2.02816600    0.00008600
 O                  2.87020600   -0.03945800   -0.00023500
 O                  1.28549700    2.12443100    0.00005600
 H                 -0.45913400   -2.06586600    0.00006900
 H                 -3.17180900    1.24783300   -0.00007500
 H                 -1.26478600    2.80797200   -0.00001900
 H                 -3.79735600   -0.99828100    0.00017600
 H                  2.77953400   -2.29688000   -0.00006700
 H                  0.96078400    3.03207800    0.00006800

