%chk=ccpvTZ3HPA.chk
# opt freq m062x/cc-pvtz

[No Title]

0 1
 N                 -0.42971000   -1.44421900   -0.00009300
 C                 -1.75101000   -1.48508000   -0.00000400
 C                 -2.54558900   -0.32583100    0.00009300
 C                 -1.93512000    0.91279300    0.00008300
 C                 -0.53363800    0.97251600   -0.00002200
 C                  0.17222800   -0.24728600   -0.00010700
 C                  1.65521300   -0.21593900   -0.00020900
 O                  2.30120500    0.82253200    0.00019100
 O                  2.24078600   -1.41140200    0.00003100
 O                  0.05274800    2.17609400   -0.00006300
 H                 -2.21032800   -2.47386200    0.00000300
 H                 -3.63136100   -0.41018700    0.00017300
 H                 -2.49992600    1.84339200    0.00014800
 H                  3.19653300   -1.25259200    0.00024300
 H                  1.02264200    2.03794600   -0.00019300

