%chk=APFDTHAPyang.chk
# opt freq apfd/6-31+g(d,p)

[No Title]

1 1
 C                 -1.54806300   -1.26665000   -0.00029300
 C                 -2.28376000   -0.07663000   -0.00082800
 C                 -1.63578800    1.17440900    0.00003900
 C                 -0.25986300    1.21159800    0.00104900
 C                  0.55835500    0.02495600    0.00088900
 C                 -0.16531200   -1.22502900    0.00096200
 O                  0.55772700   -2.35669600    0.00205900
 C                  1.98110000    0.08288900   -0.00068100
 C                  2.90915300   -1.08150100   -0.00096300
 O                  2.62767300    1.21756900   -0.00264800
 O                  0.40314200    2.40157300    0.00303300
 O                 -3.61273400   -0.19890100   -0.00181400
 H                 -2.08148000   -2.21095800   -0.00060600
 H                 -2.21179700    2.09492300    0.00038300
 H                 -0.01494800   -3.13861700    0.00186700
 H                  2.73548000   -1.71263600    0.87482900
 H                  2.73327100   -1.71401800   -0.87532600
 H                  3.93322600   -0.71004200   -0.00259100
 H                  2.02248000    1.99417800   -0.00240300
 H                 -0.18846900    3.16870200    0.00002100
 H                 -4.06915000    0.65584700   -0.00225600

