%chk=b3lypTHAPyang.chk
# opt freq b3lyp/6-31+g(d,p)

[No Title]

1 1
 C                 -1.91992000    0.14026000    0.02960800
 C                 -1.92178200   -1.20095200    0.03031900
 C                 -0.72827200   -1.81179400    0.00790300
 C                  0.41698200   -1.11227600    0.00205100
 C                  0.39642500    0.24677900   -0.00270800
 C                 -0.79741300    0.88021500    0.00454700
 O                 -0.93214500    2.23307700    0.02944600
 C                  1.59000700    0.92247100   -0.01314600
 C                  1.78825000    2.42609400   -0.03669600
 O                  2.54363400    0.18135600   -0.01319100
 O                  1.60798200   -1.88213400    0.01959900
 O                 -3.08288200   -1.91106900    0.04958500
 H                 -2.89418400    0.65815500    0.05234100
 H                 -0.69650900   -2.91400000    0.00700700
 H                 -1.85869100    2.47904000    0.18016600
 H                  1.31364800    2.88227700   -0.93383000
 H                  1.40872800    2.89498500    0.89854500
 H                  2.87211200    2.67512600   -0.09677700
 H                  2.25202900   -1.51392100   -0.62965900
 H                  1.40868000   -2.82314500   -0.22355500
 H                 -2.87516300   -2.85402800   -0.05172900

