%chk=lwm06311DHBYang.chk
# opt freq 6-311+g(d,p) m062x

[No Title]

1 1
 C                  0.32042900    1.28489400   -0.00005400
 C                  0.50377600   -0.11768500   -0.00006400
 C                 -0.61425300   -0.95224400   -0.00001400
 C                 -1.85849600   -0.36381500    0.00003000
 C                 -2.09462200    0.99852300    0.00003700
 C                 -0.98141200    1.82167500   -0.00000500
 O                 -3.05356900   -1.22955900    0.00007500
 C                  1.87250400   -0.73261900   -0.00014200
 O                  1.79295600   -2.07963400    0.00022500
 O                  2.90667200   -0.12781600   -0.00011500
 O                  1.39487800    2.06640800   -0.00008600
 H                 -0.47267400   -2.02882400   -0.00001600
 H                 -3.10134400    1.40249800    0.00007300
 H                 -1.11470400    2.89905800    0.00000200
 H                 -3.19290800   -1.75748200   -0.81050800
 H                 -3.19284700   -1.75748300    0.81066700
 H                  2.69842200   -2.42971700    0.00032800
 H                  1.16100700    3.00439700   -0.00007100

