%chk=pbeD33HPA.chk
# opt freq pbepbe/6-31+g(d,p) empiricaldispersion=gd3

[No Title]

0 1
 N                 -0.44313200   -1.44943700    0.00002800
 C                 -1.76627800   -1.47648900    0.00003500
 C                 -2.55142900   -0.31070200    0.00002100
 C                 -1.92964600    0.92338900    0.00000200
 C                 -0.52653800    0.97374300   -0.00000200
 C                  0.17294200   -0.25693600    0.00001000
 C                  1.64752400   -0.22649100   -0.00000800
 O                  2.29205300    0.82512000   -0.00006500
 O                  2.24875100   -1.41439000    0.00000200
 O                  0.07467600    2.16645100   -0.00001100
 H                 -2.23200500   -2.45928200    0.00005000
 H                 -3.63516600   -0.38399900    0.00002600
 H                 -2.48724900    1.85457200   -0.00000600
 H                  3.20385400   -1.24104500   -0.00002700
 H                  1.04919900    1.99928000    0.00000600

