%chk=pvdzFA.chk
# opt freq m062x/aug-cc-pvdz

[No Title]

0 1
 C                  1.46156900   -2.01014600   -0.00016800
 C                  2.49109500   -1.07772600   -0.00012800
 C                  2.18754400    0.29535000   -0.00007000
 C                  0.86672900    0.71466100   -0.00005500
 C                 -0.18023800   -0.22586700   -0.00009000
 C                  0.13648500   -1.58812500   -0.00014600
 O                  3.77787800   -1.48993300   -0.00014500
 C                 -1.55871500    0.27504500   -0.00006200
 C                 -2.68475800   -0.45321000    0.00000800
 O                  3.28766300    1.10358500   -0.00003900
 C                  3.07628900    2.50304700    0.00029700
 C                 -4.07370100    0.07529300    0.00007100
 O                 -5.02987200   -0.65727600    0.00100000
 O                 -4.26081900    1.41590100   -0.00048000
 H                  1.71907100   -3.06369000   -0.00020900
 H                  0.62958200    1.77366900   -0.00000800
 H                 -0.65135100   -2.33347900   -0.00017400
 H                  4.35300900   -0.71114300   -0.00008700
 H                 -1.61849100    1.36541400   -0.00003900
 H                 -2.66192200   -1.53762400    0.00014800
 H                  4.06524200    2.95923700    0.00041200
 H                  2.52795100    2.81349900   -0.89624000
 H                  2.52793500    2.81306600    0.89697400
 H                 -3.42362300    1.89291000   -0.00140700

