%chk=pbeSAyanggd3.chk
# opt freq pbepbe/6-31+g(d,p) em=gd3bj

[No Title]

1 1
 C                  2.40346400   -0.20121300   -0.00119000
 C                  1.92945400    1.13762600    0.00666800
 C                  0.55987700    1.35349900    0.01142300
 C                 -0.35993700    0.26399700    0.00882900
 C                  0.13002300   -1.07438700   -0.00211000
 C                  1.49101000   -1.29549000   -0.00531900
 O                  3.71244900   -0.41778700   -0.00550000
 O                  2.88923500    2.07994500    0.00868900
 C                  2.50352900    3.45869500    0.01766100
 O                  2.12569600   -2.49489500   -0.01409100
 C                  1.34835200   -3.70093800   -0.01895300
 C                 -1.73929300    0.57160000    0.01302000
 C                 -2.81042000   -0.32126400    0.01696200
 C                 -4.12621100    0.11452000   -0.00147500
 O                 -5.09509900   -0.78521500    0.11096300
 O                 -4.42313000    1.40327600   -0.13954500
 H                  0.16979800    2.36396400    0.01752200
 H                 -0.55688800   -1.90999100   -0.00720600
 H                  3.87973800   -1.37795500   -0.01136000
 H                  3.43675800    4.01976000    0.01828400
 H                  1.92468900    3.70807900   -0.87884200
 H                  1.92969500    3.69771600    0.92018800
 H                  2.07100300   -4.51533600   -0.02581500
 H                  0.73000600   -3.76204700    0.88268500
 H                  0.72486800   -3.75163800   -0.91769300
 H                 -1.99112500    1.62985700    0.01166700
 H                 -2.67765800   -1.39543400    0.03615800
 H                 -5.97424100   -0.46895600   -0.15255800
 H                 -5.31892900    1.63951400    0.14973300

