%chk=pbeSAgd3.chk
# opt freq pbepbe/6-31+g(d,p) em=gd3bj

[No Title]

0 1
 C                  2.28114000   -0.11492600    0.00016800
 C                  1.69777600    1.17784100    0.00023200
 C                  0.31626800    1.33678700    0.00024000
 C                 -0.53273100    0.21055000    0.00016700
 C                  0.04426400   -1.06183500    0.00008100
 C                  1.43182500   -1.23881200   -0.00001200
 O                  3.65087900   -0.12487100   -0.00002800
 O                  2.59516600    2.20223200    0.00029700
 C                  2.09839000    3.53512300    0.00031900
 O                  1.79991500   -2.56859100   -0.00032200
 C                  3.14205600   -3.02901300   -0.00026900
 C                 -1.97593100    0.43232200    0.00017300
 C                 -2.95775400   -0.49363700   -0.00030800
 C                 -4.36705900   -0.07669600   -0.00021600
 O                 -5.20739900   -1.15150800   -0.00090600
 O                 -4.79191400    1.06696700    0.00032300
 H                 -0.12106900    2.32735500    0.00032600
 H                 -0.56228300   -1.95990100    0.00000900
 H                  3.99357200   -1.02293900    0.00203900
 H                  2.98014900    4.17670500    0.00035100
 H                  1.49902800    3.73875100   -0.89582900
 H                  1.49899400    3.73871200    0.89645400
 H                  3.07544400   -4.11830200   -0.00059400
 H                  3.68417700   -2.72767700   -0.90752500
 H                  3.68383900   -2.72832800    0.90744500
 H                 -2.29614900    1.47331200    0.00059500
 H                 -2.76649100   -1.56115800   -0.00079200
 H                 -6.11183700   -0.79658500   -0.00082600

