%chk=ccpvTZAnthranilicyang.chk
# opt freq m062x/cc-pvtz

[No Title]

1 1
 C                  1.93061900   -1.47389600   -0.00000100
 C                  2.61435000   -0.25948700    0.00001400
 C                  1.91017700    0.94647300    0.00001900
 C                  0.52729200    0.90774500    0.00000500
 C                 -0.18462300   -0.29929800    0.00001100
 C                  0.53792900   -1.49597400   -0.00000200
 C                 -1.67328400   -0.29667500    0.00005500
 O                 -2.21415700   -1.49735800   -0.00011200
 N                 -0.23444400    2.17226700   -0.00003300
 O                 -2.34210600    0.73151300    0.00009800
 H                  2.48580700   -2.40963400   -0.00000400
 H                  3.70266600   -0.24347700    0.00001500
 H                  2.44123100    1.89828800    0.00001700
 H                 -0.00198300   -2.44020200    0.00000100
 H                 -3.18255900   -1.41230500   -0.00013500
 H                 -0.03073800    2.73701100   -0.82962100
 H                 -1.26709400    1.88090000   -0.00015000
 H                 -0.03088400    2.73697800    0.82961300

