%chk=ccpvTZAnthranilic.chk
# opt freq m062x/cc-pvtz

[No Title]

0 1
 C                 -1.85103900   -1.52300100    0.00000400
 C                 -2.58009100   -0.32348300    0.00001700
 C                 -1.93882000    0.89976700    0.00001900
 C                 -0.52712000    0.98406100    0.00000700
 C                  0.21017600   -0.22883900   -0.00000900
 C                 -0.46984100   -1.45995800   -0.00000900
 C                  1.68033500   -0.19870500   -0.00002500
 O                  2.25005900   -1.42496900   -0.00001100
 N                  0.07124700    2.20480100    0.00001300
 O                  2.37491400    0.80279500   -0.00000500
 H                 -2.36272300   -2.48242600    0.00000300
 H                 -3.66956700   -0.35088900    0.00002700
 H                 -2.51734800    1.82332800    0.00003000
 H                  0.12031200   -2.37309600   -0.00002000
 H                  3.20597000   -1.27540500   -0.00000300
 H                  1.07866900    2.26783200   -0.00001900
 H                 -0.49542900    3.03539400   -0.00000300

