%chk=b3lypDHBgd3.chk
# opt freq b3lyp/6-31+g(d,p)

[No Title]

0 1
 C                  0.69665400   -0.99802700   -0.00040200
 C                  0.70582600    0.35437700   -0.00072600
 C                 -0.46892700    1.01599100   -0.00034600
 C                 -1.65888000    0.39204400    0.00045000
 C                 -1.65305400   -0.94863500    0.00064500
 C                 -0.49529000   -1.62148700    0.00024300
 O                 -2.82981800    1.08474900    0.00080900
 C                  1.86060800    1.08724000   -0.00143800
 O                  1.85198000    2.44555500   -0.00203400
 O                  2.97568800    0.61116200   -0.00153300
 O                  1.81845100   -1.77113900   -0.00083300
 H                 -0.50817000    2.11820700   -0.00061300
 H                 -2.60873500   -1.49886100    0.00116300
 H                 -0.52455000   -2.72470400    0.00043100
 H                 -3.57160800    0.45838100    0.00011400
 H                  2.77265400    2.75297900   -0.00229100
 H                  1.56123400   -2.70724400   -0.00063100

