%chk=camb3lypDHByanggd3.chk
# opt freq cam-b3lyp/6-31+g(d,p)

[No Title]

1 1
 C                 -0.21627300    1.27710500   -0.00006700
 C                 -0.42627100   -0.13796300   -0.00009000
 C                  0.69503500   -1.01620800   -0.00009200
 C                  1.98360200   -0.51705500    0.00003600
 C                  2.17715800    0.88247000    0.00005100
 C                  1.10019400    1.75598000    0.00000900
 O                  3.00309300   -1.40946700    0.00008400
 C                 -1.72551000   -0.71669300    0.00000000
 O                 -1.81352200   -2.02782600   -0.00019500
 O                 -2.79331700    0.03542300    0.00031300
 O                 -1.27743000    2.10011000   -0.00016300
 H                  0.54817200   -2.08873000   -0.00018300
 H                  3.18552000    1.28878700    0.00007800
 H                  1.27722000    2.82770000   -0.00002800
 H                  3.86807900   -0.97674700    0.00031700
 H                 -2.71313400   -2.39483100   -0.00020200
 H                 -3.64331400   -0.43703600    0.00069500
 H                 -1.00073600    3.02911700   -0.00007200

