%chk=2pbeDHB21.chk
# opt freq pbepbe/6-31+g(d,p)

[No Title]

1 1
 C                  0.21852000    1.26844100   -0.00000100
 C                  0.42184000   -0.13646700   -0.00000400
 C                 -0.69451200   -1.01156200    0.00001100
 C                 -1.97505900   -0.51302100    0.00001300
 C                 -2.16451400    0.88093800    0.00000600
 C                 -1.09213200    1.74958900    0.00000900
 O                 -2.99464800   -1.39891400   -0.00002100
 C                  1.71743900   -0.71433600   -0.00000900
 O                  1.80383900   -2.01681800    0.00008400
 O                  2.77859700    0.03169300   -0.00010700
 O                  1.27712500    2.08562900   -0.00000100
 H                 -0.54927600   -2.08393800    0.00001400
 H                 -3.17195300    1.28771700   -0.00000300
 H                 -1.26638200    2.82088100    0.00000900
 H                 -3.85850200   -0.96817200    0.00021800
 H                  2.69877200   -2.39206900   -0.00001600
 H                  3.63127000   -0.43338500   -0.00002000
 H                  1.00727600    3.01476000    0.00000100

