%chk=APFDDMAN.chk
# opt freq apfd/6-31+g(d,p)

[No Title]

0 1
 C                  0.68530000    2.43817600    0.21347100
 C                  2.08793400    2.39783900    0.35073600
 C                  2.75825600    1.20955000    0.19691900
 C                  2.03991900   -0.00063900    0.00000900
 C                  0.60071700   -0.00018000    0.00001600
 C                 -0.06347700    1.28785500   -0.01111100
 C                  2.75748200   -1.21128500   -0.19691600
 C                  2.08640000   -2.39914200   -0.35075200
 C                  0.68374100   -2.43858600   -0.21348800
 C                 -0.06430100   -1.28779200    0.01112400
 N                 -1.44826100    1.37918500   -0.26384900
 N                 -1.44914300   -1.37825400    0.26385800
 C                 -1.89977000    0.88200100   -1.56137000
 C                 -2.13005200    2.60224600    0.11393100
 C                 -2.13169600   -2.60086800   -0.11398900
 C                 -1.90032700   -0.88089400    1.56142600
 H                  0.19365500    3.40282800    0.22173400
 H                  2.63295300    3.32209600    0.51863600
 H                  3.84301400    1.17097900    0.22730500
 H                  3.84226400   -1.17340600   -0.22731200
 H                  2.63082800   -3.32374400   -0.51867100
 H                  0.19148100   -3.40292500   -0.22177100
 H                 -1.32204300    0.01023000   -1.85825400
 H                 -2.95324900    0.58987000   -1.50006800
 H                 -1.79248700    1.65716400   -2.34065900
 H                 -1.87658800    2.87458300    1.14177800
 H                 -1.89939500    3.46010800   -0.54425500
 H                 -3.20932300    2.42698900    0.06040900
 H                 -1.87840600   -2.87330200   -1.14185300
 H                 -1.90156700   -3.45891200    0.54414500
 H                 -3.21085800   -2.42494400   -0.06045100
 H                 -1.32201700   -0.00954700    1.85841000
 H                 -2.95360800   -0.58804700    1.50014000
 H                 -1.79358000   -1.65621100    2.34063500

