%chk=B2PLYPDMANyang.chk
# opt freq B2PLYP/6-31+g(d,p)

[No Title]

1 1
 C                 -0.76650700   -2.42907600   -0.00005500
 C                 -2.17813300   -2.37922100   -0.00003100
 C                 -2.81399500   -1.16496800    0.00000200
 C                 -2.08034900    0.05086000    0.00002100
 C                 -0.65186100    0.02027000    0.00000500
 C                 -0.03805900   -1.26864400   -0.00003800
 C                 -2.75618000    1.29889700    0.00005600
 C                 -2.05635900    2.47696800    0.00008000
 C                 -0.64360900    2.45567600    0.00007000
 C                  0.04737800    1.26913400    0.00003500
 N                  1.43351500   -1.33211500   -0.00007900
 N                  1.50476000    1.25676600    0.00004100
 C                  1.98735200   -1.95065100    1.23470600
 C                  1.98727600   -1.95053200   -1.23495800
 C                  2.07354200    1.86493000   -1.21840700
 C                  2.07352000    1.86477200    1.21857800
 H                 -0.26463900   -3.39285100   -0.00009000
 H                 -2.74643700   -3.30232200   -0.00004100
 H                 -3.89860400   -1.11385300    0.00001600
 H                 -3.84187500    1.30110400    0.00006900
 H                 -2.57747500    3.42798400    0.00011100
 H                 -0.09722500    3.39480100    0.00009600
 H                  1.69839300   -0.24267200   -0.00003700
 H                  3.07267000   -1.83474300    1.22696300
 H                  1.55962600   -1.44481400    2.10092200
 H                  1.73045200   -3.01106000    1.26733500
 H                  3.07259400   -1.83461300   -1.22727900
 H                  1.55948600   -1.44462000   -2.10109800
 H                  1.73038300   -3.01094000   -1.26766600
 H                  1.63055100    1.39679500   -2.10010700
 H                  1.88035900    2.94349300   -1.26002800
 H                  3.15445000    1.70278900   -1.22486200
 H                  1.63052200    1.39651300    2.10020900
 H                  3.15443000    1.70264200    1.22502600
 H                  1.88032000    2.94332600    1.26034200

