%chk=B2PLYPDMAN.chk
# opt freq B2PLYP/6-31+g(d,p)

[No Title]

0 1
 C                  0.68033700    2.43333600    0.20835500
 C                  2.08430000    2.39395400    0.34153400
 C                  2.75183500    1.20991000    0.19074300
 C                  2.03160800   -0.00008900    0.00000100
 C                  0.60227900   -0.00002600    0.00000300
 C                 -0.06432400    1.28621000   -0.00953400
 C                  2.75172800   -1.21015100   -0.19074400
 C                  2.08408800   -2.39413500   -0.34153600
 C                  0.68012200   -2.43339400   -0.20835600
 C                 -0.06443800   -1.28620300    0.00953800
 N                 -1.44971800    1.36738100   -0.25056800
 N                 -1.44984000   -1.36725200    0.25057100
 C                 -1.89690000    0.87099300   -1.54633200
 C                 -2.12132100    2.59643500    0.11066100
 C                 -2.12155400   -2.59624100   -0.11067200
 C                 -1.89697700   -0.87084000    1.54634100
 H                  0.18630400    3.39759600    0.22056600
 H                  2.62828500    3.31887300    0.50718900
 H                  3.83669500    1.16931500    0.22166200
 H                  3.83659200   -1.16965100   -0.22166500
 H                  2.62799100   -3.31910200   -0.50719500
 H                  0.18600400   -3.39761100   -0.22057000
 H                 -1.29706800    0.01702600   -1.85596400
 H                 -2.94126700    0.54807500   -1.47624200
 H                 -1.81628400    1.65763900   -2.31569400
 H                 -1.87062300    2.87524900    1.13773700
 H                 -1.87820400    3.44270100   -0.55651600
 H                 -3.20088800    2.42708300    0.05232400
 H                 -1.87088400   -2.87506400   -1.13775300
 H                 -1.87851300   -3.44253700    0.55649300
 H                 -3.20110600   -2.42679200   -0.05233100
 H                 -1.29706200   -0.01693700    1.85598800
 H                 -2.94131200   -0.54781800    1.47625400
 H                 -1.81644000   -1.65750600    2.31569100

