%chk=b3lypDMANyanggd3.chk
# opt freq b3lyp/6-31+g(d,p)

[No Title]

1 1
 C                 -2.13422800   -1.00292900    0.61247300
 C                 -2.06767500   -2.33498900    0.71336500
 C                 -0.92257500   -2.93360100    0.36727100
 C                  0.16833200   -2.20603700    0.06512200
 C                  0.17538900   -0.85761900    0.19218500
 C                 -1.03955600   -0.27217600    0.32828500
 C                  1.26159600   -2.86228000   -0.35422600
 C                  2.35586300   -2.16603600   -0.67064000
 C                  2.38206400   -0.84759100   -0.43782400
 C                  1.34029400   -0.15868000    0.08489100
 N                 -1.28402100    0.98536400   -0.36194200
 N                  1.51908700    1.07360500    0.40864700
 C                 -1.56894000    0.75294200   -1.82980900
 C                 -2.31938900    1.89229300    0.26936200
 C                  0.68184800    1.76195500    1.43383000
 C                  2.78400000    1.77375900    0.04824500
 H                 -3.13606800   -0.54953400    0.67162100
 H                 -2.97200600   -2.93265200    0.91637000
 H                 -0.91336900   -4.03601300    0.31202000
 H                  1.27618200   -3.95831200   -0.47958400
 H                  3.25127000   -2.69067500   -1.04616100
 H                  3.36933900   -0.40265500   -0.63605900
 H                 -0.38589200    1.51814800   -0.35197100
 H                 -1.60543900    1.72775600   -2.36637600
 H                 -0.75961100    0.14736600   -2.29684700
 H                 -2.53981200    0.22824200   -1.97837100
 H                 -2.18236300    2.92838300   -0.11488100
 H                 -2.21532400    1.92503700    1.37666500
 H                 -3.35798300    1.58234400    0.01781700
 H                 -0.00265300    1.09817600    2.00180100
 H                  1.35625200    2.16559200    2.22346300
 H                  0.16210600    2.64789100    1.00766200
 H                  3.00089400    1.71651300   -1.04266900
 H                  2.68098200    2.86414400    0.24960500
 H                  3.64140500    1.42226900    0.66665900

