%chk=camb3lypDMANgd3.chk
# opt freq cam-b3lyp/6-31+g(d,p)

[No Title]

0 1
 C                 -0.69118700    2.44078000   -0.21806400
 C                 -2.09420800    2.39814000   -0.35401700
 C                 -2.75977500    1.20759900   -0.19858800
 C                 -2.03708500   -0.00099200   -0.00000500
 C                 -0.59501400   -0.00028400   -0.00000600
 C                  0.06545400    1.29402200    0.00592200
 C                 -2.75858900   -1.21029000    0.19858500
 C                 -2.09185300   -2.40017600    0.35402500
 C                 -0.68879100   -2.44144000    0.21807500
 C                  0.06672400   -1.29394300   -0.00592800
 N                  1.45517800    1.40048200    0.25394000
 N                  1.45655100   -1.39905000   -0.25394400
 C                  1.90597500    0.94484800    1.56989500
 C                  2.12413600    2.62849900   -0.14294000
 C                  2.12669700   -2.62640700    0.14296800
 C                  1.90689600   -0.94303900   -1.56992400
 H                 -0.20389600    3.40810600   -0.22993500
 H                 -2.64185100    3.32112700   -0.52290400
 H                 -3.84484800    1.16545900   -0.22879300
 H                 -3.84370100   -1.16921500    0.22879200
 H                 -2.63859000   -3.32369800    0.52292200
 H                 -0.20055200   -3.40829000    0.22995600
 H                  1.37182800    0.04545300    1.86803700
 H                  2.97524500    0.71051300    1.53256700
 H                  1.74395600    1.72175200    2.33873100
 H                  1.86535800    2.88743600   -1.17318200
 H                  1.88984000    3.49319000    0.50546200
 H                  3.20579000    2.46519100   -0.09224600
 H                  1.86817900   -2.88556100    1.17322000
 H                  1.89322800   -3.49134300   -0.50540600
 H                  3.20819300   -2.46206000    0.09226000
 H                  1.37184000   -0.04420700   -1.86813000
 H                  2.97592800   -0.70762100   -1.53260400
 H                  1.74566700   -1.72015600   -2.33871100

