%chk=camB3lypD3DHByanggd3.chk
# opt freq cam-b3lyp/6-31+g(d,p) empiricaldispersion=gd3

[No Title]

1 1
 C                  0.21715200    1.27695100   -0.00000600
 C                  0.42594600   -0.13859300    0.00000000
 C                 -0.69627700   -1.01575200    0.00001100
 C                 -1.98424800   -0.51553500    0.00001800
 C                 -2.17701300    0.88437900    0.00001300
 C                 -1.09930600    1.75675700    0.00000100
 O                 -3.00289500   -1.40898500    0.00003300
 C                  1.72514900   -0.71768200   -0.00001400
 O                  1.81278500   -2.02906800   -0.00008900
 O                  2.79267100    0.03521500    0.00006200
 O                  1.27912300    2.09905700   -0.00002300
 H                 -0.55368200   -2.08884300    0.00001800
 H                 -3.18536100    1.29033900    0.00002000
 H                 -1.27456600    2.82863800   -0.00000400
 H                 -3.86914600   -0.97904400    0.00002800
 H                  2.71153800   -2.39765100   -0.00000600
 H                  3.64357700   -0.43514200   -0.00002100
 H                  1.00573800    3.02879900   -0.00003300

