%chk=ccpvTZDHByang.chk
# opt freq m062x/cc-pvtz

[No Title]

1 1
 C                  0.22001000    1.26879100   -0.00000400
 C                  0.41829800   -0.13757600   -0.00000300
 C                 -0.69566200   -1.01767200    0.00000800
 C                 -1.97883600   -0.51588600    0.00001600
 C                 -2.16777800    0.88196700    0.00001300
 C                 -1.09348100    1.75304200    0.00000300
 O                 -2.99980300   -1.40011500    0.00002700
 C                  1.72075200   -0.71429700   -0.00001500
 O                  1.81123100   -2.01534600   -0.00004200
 O                  2.77950700    0.03444000    0.00001500
 O                  1.28106000    2.08456900   -0.00001400
 H                 -0.55026900   -2.09465800    0.00001100
 H                 -3.18027800    1.28874400    0.00002000
 H                 -1.26621600    2.82876200    0.00000100
 H                 -3.85546400   -0.95558200    0.00002500
 H                  2.71426600   -2.36905500   -0.00000200
 H                  3.62308500   -0.44579300   -0.00002500
 H                  0.99909300    3.00898200   -0.00002200

