%chk=ccpvTZm062xDHB.chk
# opt freq m062x/cc-pvtz

[No Title]

0 1
 C                  0.23278900    1.26921400    0.00000700
 C                  0.46311600   -0.11953400    0.00001400
 C                 -0.62740600   -0.99733300    0.00002000
 C                 -1.93199100   -0.52098700    0.00001200
 C                 -2.15964800    0.85495400    0.00000200
 C                 -1.08410600    1.73605500    0.00000400
 O                 -2.94226000   -1.44391200    0.00000300
 C                  1.84725800   -0.67114200    0.00001200
 O                  1.85443800   -2.02890400    0.00005700
 O                  2.87101600   -0.03690000   -0.00014100
 O                  1.28237400    2.12926200    0.00001200
 H                 -0.45820800   -2.07054100    0.00003000
 H                 -3.17844300    1.24495700   -0.00000800
 H                 -1.26785100    2.81099100    0.00000000
 H                 -3.79303700   -0.99395700    0.00009500
 H                  2.78710400   -2.28690000   -0.00001200
 H                  0.94581900    3.03172100    0.00002300

