%chk=pvdzdzTHAP.chk
# opt freq m062x/aug-cc-pvdz

[No Title]

0 1
 C                  1.52167400    1.25153300   -0.00005600
 C                  2.25586100    0.06064100   -0.00003500
 C                  1.62639600   -1.17419400    0.00001300
 C                  0.23005200   -1.22810000    0.00003600
 C                 -0.56186700   -0.04018600    0.00002900
 C                  0.13836600    1.19212900   -0.00003000
 O                 -0.58717900    2.34101200   -0.00003000
 C                 -2.02637000   -0.17135600    0.00008000
 C                 -2.94794000    1.02076000   -0.00002700
 O                 -2.54342800   -1.29811100    0.00009500
 O                 -0.32930600   -2.43320700    0.00005300
 O                  3.60345900    0.18699600   -0.00005900
 H                  2.04981800    2.19929600   -0.00007100
 H                  2.18114000   -2.10650600    0.00002300
 H                  0.01034400    3.09800500   -0.00029600
 H                 -2.76764000    1.64723800   -0.87650500
 H                 -3.97079600    0.64553200   -0.00003000
 H                 -2.76768500    1.64734900    0.87638100
 H                 -1.31903900   -2.28816500    0.00001100
 H                  4.01845500   -0.68363500   -0.00004200

