%chk=pvdzTHAPyang.chk
# opt freq m062x/aug-cc-pvdz

[No Title]

1 1
 C                  1.54032600   -1.26945100   -0.00018400
 C                  2.27704600   -0.08265700    0.00001800
 C                  1.63782400    1.17015500    0.00001700
 C                  0.26436700    1.21207800   -0.00010400
 C                 -0.55301800    0.03020500   -0.00018900
 C                  0.16051900   -1.22019500   -0.00032100
 O                 -0.56706100   -2.34079400   -0.00057800
 C                 -1.97565000    0.08819700    0.00020300
 C                 -2.90036700   -1.07866400    0.00054000
 O                 -2.62172300    1.21145300    0.00035300
 O                 -0.39126500    2.39701700   -0.00026400
 O                  3.59807600   -0.20838500    0.00012300
 H                  2.07312900   -2.21418300   -0.00026800
 H                  2.21823100    2.08777200   -0.00007900
 H                 -0.00449900   -3.12811700   -0.00059000
 H                 -2.72053300   -1.70632500   -0.87569400
 H                 -2.71983700   -1.70641700    0.87656200
 H                 -3.92269200   -0.70490900    0.00096400
 H                 -2.03502800    1.99695000    0.00014300
 H                  0.20157600    3.16142600    0.00172500
 H                  4.05915100    0.64146400    0.00028500

