%chk=ccpvTZTHAPyang.chk
# opt freq m062x/cc-pvtz

[No Title]

1 1
 C                  1.54005400   -1.27050600   -0.00025600
 C                  2.27588200   -0.08229700   -0.00011300
 C                  1.63651800    1.17140400    0.00002800
 C                  0.26239400    1.21237000    0.00006400
 C                 -0.55445800    0.02919800   -0.00002100
 C                  0.15906500   -1.22139400   -0.00022600
 O                 -0.56508000   -2.34614500   -0.00040000
 C                 -1.97696600    0.08772100    0.00018400
 C                 -2.90105400   -1.07784200    0.00032400
 O                 -2.62151100    1.21335500    0.00029300
 O                 -0.39168800    2.40009800    0.00011400
 O                  3.59876800   -0.20690500   -0.00016400
 H                  2.07396000   -2.21882900   -0.00041200
 H                  2.21938800    2.09179400    0.00003100
 H                  0.01077700   -3.12272000   -0.00053900
 H                 -2.71524900   -1.70502700   -0.87883500
 H                 -2.71484700   -1.70515200    0.87930500
 H                 -3.92641100   -0.70449900    0.00058200
 H                 -2.02173200    1.98761200    0.00023200
 H                  0.21364200    3.15302000    0.00105300
 H                  4.04794800    0.64865800   -0.00006200

