%chk=ccpvTZdzTHAP.chk
# opt freq m062x/cc-pvtz

[No Title]

0 1
 C                 -1.52105300    1.25158500    0.00004300
 C                 -2.25599900    0.06108400    0.00001800
 C                 -1.62712000   -1.17550000   -0.00003100
 C                 -0.23059300   -1.22924900   -0.00005500
 C                  0.56365900   -0.04208300   -0.00000900
 C                 -0.13615700    1.19082600    0.00003200
 O                  0.58543700    2.34434200    0.00007300
 C                  2.02927400   -0.17195200    0.00001700
 C                  2.94673100    1.02259300   -0.00001700
 O                  2.54876300   -1.29596900    0.00006400
 O                  0.32767500   -2.43627700   -0.00015600
 O                 -3.60536700    0.18774400    0.00003400
 H                 -2.04862100    2.20374800    0.00007200
 H                 -2.18625800   -2.10924800   -0.00006500
 H                 -0.02432600    3.09024800    0.00018600
 H                  2.75944800    1.64824700    0.87947700
 H                  3.97342300    0.65010300    0.00001800
 H                  2.75948300    1.64817900   -0.87956700
 H                  1.31383800   -2.28763600   -0.00023900
 H                 -4.01150900   -0.68618500    0.00001000

