%chk=B3LYPDMAN.chk
# opt freq b3lyp/6-31+g(d,p) em=gd3bj

[No Title]

0 1
 C                 -2.00786100   -0.94257300   -1.14497600
 C                 -1.87654000   -2.26044600   -1.33667600
 C                 -0.91239800   -2.90381700   -0.67421600
 C                  0.01144200   -2.19963300    0.00013700
 C                  0.00439600   -0.84399400    0.00005400
 C                 -1.15466300   -0.22687900   -0.37716300
 C                  0.94257700   -2.89406400    0.67458500
 C                  1.89996300   -2.24062800    1.33696300
 C                  2.01756300   -0.92146300    1.14509500
 C                  1.15695600   -0.21480100    0.37719000
 N                 -1.49649000    0.97053000   -0.05081000
 N                  1.48630500    0.98606200    0.05068800
 C                 -0.92866200    1.59098100    1.18894000
 C                 -2.68602300    1.63312900   -0.65135000
 C                  2.66887900    1.66108400    0.65113800
 C                  0.91205100    1.60040500   -1.18914200
 H                 -2.93527800   -0.53461100   -1.57550700
 H                 -2.62783800   -2.82784400   -1.91208600
 H                 -0.88918000   -4.00606300   -0.72103000
 H                  0.93082800   -3.99649700    0.72154200
 H                  2.65713800   -2.80009700    1.91245100
 H                  2.94067700   -0.50383300    1.57557200
 H                 -0.40343800    0.88943000    1.87085600
 H                 -0.33053100    2.50744400    1.00554500
 H                 -1.78434900    1.93745000    1.81293500
 H                 -2.64497600    1.63788500   -1.76426600
 H                 -3.63710800    1.19634400   -0.26991100
 H                 -2.69497100    2.70959300   -0.36636900
 H                  2.62779100    1.66555400    1.76405500
 H                  3.62446000    1.23417100    0.26975500
 H                  2.66662800    2.73754900    0.36602300
 H                  0.39415800    0.89333700   -1.87096300
 H                  0.30441000    2.51061600   -1.00587200
 H                  1.76408200    1.95567900   -1.81318900

