%chk=B3PW91D3BJDMAN.chk
# opt freq b3pw91/6-31+g(d,p) EmpiricalDispersion=GD3BJ

[No Title]

0 1
 C                  0.68178700    2.43435600    0.23277200
 C                  2.08129600    2.39137400    0.37759400
 C                  2.74935600    1.20545100    0.21114000
 C                  2.02994300    0.00019500    0.00000000
 C                  0.59206800    0.00005700    0.00000000
 C                 -0.06944800    1.28941300   -0.00737800
 C                  2.74959000   -1.20492100   -0.21113900
 C                  2.08175900   -2.39097400   -0.37759300
 C                  0.68225900   -2.43422600   -0.23277100
 C                 -0.06919800   -1.28942800    0.00737800
 N                 -1.44897800    1.39116900   -0.27143900
 N                 -1.44870900   -1.39145100    0.27143700
 C                 -1.89088100    0.90342500   -1.57117500
 C                 -2.11866600    2.62061500    0.09382300
 C                 -2.11815600   -2.62103000   -0.09381700
 C                 -1.89071100   -0.90378000    1.57116700
 H                  0.19218900    3.40147600    0.24579200
 H                  2.62704800    3.31362600    0.55854700
 H                  3.83484100    1.16519200    0.24296500
 H                  3.83506700   -1.16445200   -0.24296300
 H                  2.62768900   -3.31312100   -0.55854500
 H                  0.19284700   -3.40144000   -0.24579000
 H                 -1.33550800    0.01158400   -1.85541600
 H                 -2.95412200    0.64353000   -1.52847500
 H                 -1.74813700    1.66923500   -2.35444000
 H                 -1.87608400    2.89593700    1.12410600
 H                 -1.87322100    3.47440300   -0.56486200
 H                 -3.19993200    2.45897900    0.02983800
 H                 -1.87552300   -2.89630800   -1.12409900
 H                 -1.87254200   -3.47476600    0.56487200
 H                 -3.19945300   -2.45960300   -0.02982900
 H                 -1.33552100   -0.01182200    1.85539900
 H                 -2.95400500   -0.64410100    1.52846200
 H                 -1.74781400   -1.66955100    2.35444200

