%chk=camb3lypDMANyang.chk
# opt freq cam-b3lyp/6-31+g(d,p) em=gd3bj

[No Title]

1 1
 C                 -0.74776000   -2.43994700   -0.00020200
 C                 -2.15930600   -2.40460500   -0.00009100
 C                 -2.81078000   -1.19311000    0.00014400
 C                 -2.09112800    0.03096100    0.00019800
 C                 -0.65263900    0.01450400    0.00009400
 C                 -0.02748800   -1.26878300   -0.00012600
 C                 -2.77757200    1.27349300    0.00017300
 C                 -2.08611000    2.46194700   -0.00008200
 C                 -0.67368500    2.45429800   -0.00021900
 C                  0.03265400    1.27105000    0.00012800
 N                  1.44973400   -1.31869800   -0.00012500
 N                  1.49389700    1.27437900   -0.00009400
 C                  2.01523200   -1.93001200    1.24040700
 C                  2.01530100   -1.93043000   -1.24042400
 C                  2.06320300    1.88213700   -1.22460100
 C                  2.06356300    1.88108400    1.22486300
 H                 -0.23857900   -3.39829000   -0.00046900
 H                 -2.71806900   -3.33364800   -0.00022800
 H                 -3.89544700   -1.15519500    0.00027200
 H                 -3.86281100    1.26708500    0.00048100
 H                 -2.61632400    3.40797700   -0.00023600
 H                 -0.13876500    3.39844300   -0.00049300
 H                  1.70134000   -0.22846300   -0.00033700
 H                  3.09943300   -1.80462300    1.22920300
 H                  1.58747900   -1.42262100    2.10495700
 H                  1.76809400   -2.99172700    1.28158400
 H                  3.09951100   -1.80514700   -1.22916000
 H                  1.58768200   -1.42323700   -2.10516100
 H                  1.76807100   -2.99213600   -1.28138800
 H                  1.62707500    1.40359800   -2.10373700
 H                  1.86291100    2.95870100   -1.27762600
 H                  3.14538900    1.72779100   -1.22802800
 H                  1.62707400    1.40232900    2.10368000
 H                  3.14566400    1.72612200    1.22818900
 H                  1.86394600    2.95775400    1.27845300

