%chk=b3lypD3DMANyang.chk
# opt freq b3lyp/6-31+g(d,p) EmpiricalDispersion=GD3

[No Title]

1 1
 C                  0.75988400   -2.43449500    0.00010900
 C                  2.16894300   -2.39139600    0.00009300
 C                  2.81247800   -1.17757700    0.00002900
 C                  2.08644300    0.04067900   -0.00002300
 C                  0.64964900    0.01714100   -0.00000900
 C                  0.03129900   -1.26885500    0.00006000
 C                  2.76718300    1.28422400   -0.00008900
 C                  2.07196700    2.46871400   -0.00014100
 C                  0.66198600    2.45506500   -0.00012700
 C                 -0.04061700    1.27005200   -0.00006400
 N                 -1.44252500   -1.32697500    0.00008200
 N                 -1.49984200    1.26805100   -0.00005400
 C                 -2.00144700   -1.94679000   -1.23313400
 C                 -2.00141500   -1.94670200    1.23335600
 C                 -2.06852200    1.87954600    1.21836100
 C                 -2.06853900    1.87948800   -1.21849000
 H                  0.25804900   -3.39797400    0.00016200
 H                  2.73365800   -3.31778800    0.00013400
 H                  3.89781000   -1.13422600    0.00001600
 H                  3.85330800    1.28322100   -0.00009900
 H                  2.59908100    3.41739000   -0.00019200
 H                  0.12447200    3.39903900   -0.00017000
 H                 -1.69729700   -0.22796200    0.00005100
 H                 -3.08713800   -1.82946200   -1.22589600
 H                 -1.57834200   -1.44703400   -2.10502500
 H                 -1.75114700   -3.00873900   -1.26858300
 H                 -3.08710600   -1.82937900    1.22613700
 H                 -1.57829100   -1.44688000    2.10520100
 H                 -1.75110800   -3.00864700    1.26887700
 H                 -1.63294700    1.41156800    2.10386900
 H                 -1.87360100    2.95786600    1.26454100
 H                 -3.15098800    1.72384900    1.22487800
 H                 -1.63296900    1.41147500   -2.10398100
 H                 -3.15100400    1.72378300   -1.22498900
 H                 -1.87362700    2.95780700   -1.26471900

