%chk=ccpvTZFAyang.chk
# opt freq m062x/cc-pvtz

[No Title]

1 1
 C                  1.47886800   -2.02655000   -0.00001500
 C                  2.51358700   -1.08062800    0.00002000
 C                  2.22855200    0.31363100    0.00003200
 C                  0.91914100    0.73612300    0.00000100
 C                 -0.13930400   -0.21703900   -0.00003700
 C                  0.16892100   -1.59932300   -0.00003000
 O                  3.77101500   -1.49851600    0.00005200
 C                 -1.47080700    0.26425100   -0.00005600
 C                 -2.63334200   -0.48850100   -0.00002400
 C                 -3.87990000    0.13149000    0.00002000
 O                 -4.94970900   -0.62999100   -0.00006500
 O                 -3.98488400    1.44330200    0.00018200
 O                  3.33636700    1.08666800    0.00006600
 C                  3.14991100    2.49926600   -0.00008800
 H                  1.74307000   -3.08144000   -0.00003800
 H                  0.67957400    1.79739700   -0.00001600
 H                 -0.62748000   -2.34028700   -0.00008200
 H                  4.37004200   -0.73440700    0.00007100
 H                 -1.58831900    1.35063200   -0.00006900
 H                 -2.64906000   -1.57374600   -0.00001800
 H                 -5.79365900   -0.15544400    0.00012500
 H                 -4.89387600    1.77513200   -0.00041700
 H                  4.15037500    2.93436300   -0.00013500
 H                  2.60662400    2.80979100   -0.90230400
 H                  2.60663300    2.80999400    0.90206100

